18
 energy: -29.908082942911 gnorm: 0.000554485783 xtb: 6.4.1 (afa7bdf)
C         3.66485103679301    0.43628788047181    0.47136557991154
C         2.34167888109586   -0.10889195174341    0.05356865282871
C         1.09735610095924    0.36544073851362    0.28763611214243
C         0.07029579347368   -0.45306099672707   -0.28309152155539
C        -1.32191983529227   -0.13370810498109   -0.15584952074783
N        -1.78976652671995    0.93780724763503    0.48398054797214
N        -3.13421007376781    0.87386271426736    0.37651994578905
C        -3.53589662317798   -0.21820085687625   -0.32130607570074
C        -2.40726388567600   -0.89356505844768   -0.68220092058582
C         0.47322216140957   -1.59442574748746   -0.98311749195403
S         2.23269567682183   -1.58738539506030   -0.88646102521492
H         3.52809802782375    1.37189984885425    1.01602278775655
H         4.30149769685152    0.62839876464194   -0.39622146188732
H         4.19442141696562   -0.26817541629698    1.11871656004399
H         0.88773394666002    1.26719018613735    0.84636998463024
H        -3.70492243263608    1.59221809481311    0.78966443220031
H        -4.57927452830073   -0.41331505374383   -0.49518486647067
H        -2.31859683328330   -1.80237789397042   -1.24041271915827
