18
 energy: -29.908084521389 gnorm: 0.000710964228 xtb: 6.4.1 (afa7bdf)
C        -3.71607904761320   -0.17556721235429   -0.13639650791474
C        -2.27883376877236   -0.52909159194038   -0.31493432187487
C        -1.16899478247507    0.19737129570819   -0.05274481194457
C         0.04238374287624   -0.50037650402673   -0.36288224833169
C         1.33550631127007    0.08659056690275   -0.16144027023016
N         1.53306597272303    1.31179854855847    0.32461876704368
N         2.87191014819574    1.48368995497994    0.35837930334904
C         3.53531489105895    0.39105508549757   -0.09712779411786
C         2.58998744465060   -0.52971653465811   -0.44148396058817
C        -0.07636775310530   -1.79503238481666   -0.87757332465485
S        -1.81074834306695   -2.09545252355395   -0.95319033661425
H        -4.20783971593148   -0.86629472466532    0.55441107182410
H        -3.80616982665437    0.83635064119231    0.26249534625611
H        -4.25336906966960   -0.22331392513954   -1.08769450356767
H        -1.18225124396953    1.20127507117433    0.34896114578516
H         3.25719647975526    2.34995750352220    0.69564648532343
H         4.61005508877441    0.37069277575249   -0.13356030862984
H         2.72523247195355   -1.51393604213326   -0.83967373111282
