19
 energy: -30.275924429552 gnorm: 0.000348352977 xtb: 6.4.1 (afa7bdf)
C        -1.94710493043432   -0.78833675325069   -0.80289213025415
C        -1.37692896929541   -0.05720294536067    0.26532829315679
C         0.01425732380714    0.28421381349872    0.46578151772744
C         1.06907693292250   -0.07604950179993   -0.41934088779797
C         2.28848382293486    0.35963337616584   -0.01432970154757
S         2.16930610060811    1.23312966576812    1.48274625129682
C         0.47213884515548    0.99616447339099    1.53691041960413
C         3.60803299760367    0.16374729788062   -0.67645061429624
N        -2.32183317562170    0.30682210482427    1.12522926025173
N        -3.46201396747283   -0.16768858533085    0.63741394537881
C        -3.28836395783202   -0.83498096525757   -0.52276091316606
H        -1.44404347635658   -1.21319729791206   -1.64609663664317
H         0.91978936169438   -0.63806908626183   -1.32379597972694
H        -0.10492965101423    1.38907843848872    2.34853741754075
H         4.37845192848775    0.73472084622126   -0.16489055625057
H         3.89074745908533   -0.88947047825992   -0.66164599036812
H         3.56446108855304    0.48547340416279   -1.71656571399389
H        -4.32225436340701   -0.00635032588762    1.13635966861695
H        -4.10727536941814   -1.28163948108019   -1.04953764952872
