18
 energy: -29.902580834231 gnorm: 0.000352335664 xtb: 6.4.1 (afa7bdf)
C         3.61456511390769   -0.34902835837509    0.04296471498940
C         2.28365672841207    0.28775888826398    0.25817462665251
C         1.04719174633432   -0.18835815715679   -0.01620935960201
C        -0.00138308335342    0.72295071445837    0.33922109244945
C        -1.38345526206987    0.38644435043090    0.12970941410031
N        -2.39441673218174    1.22759472094904    0.33474255220199
N        -3.51657872592153    0.54562985399399    0.03899202827085
C        -3.25384050318975   -0.72269187601400   -0.35572490916832
C        -1.89670007508972   -0.87039171425939   -0.31461528277026
C         0.38328410324072    1.94109764345559    0.90744394979407
S         2.14382773725774    1.88120171448112    0.97296613424029
H         4.27035715886156    0.30226648320949   -0.54011436091244
H         3.49750837573981   -1.29383315840723   -0.49156478077213
H         4.11324222691849   -0.55097378375844    0.99555181090282
H         0.88726790538314   -1.15916127663399   -0.47112352898067
H        -4.41178812724175    0.99632067903150    0.12892711579625
H        -4.04185212833250   -1.40251793119341   -0.62763225073778
H        -1.34088845867526   -1.75430879247570   -0.56025696645433
