18
 energy: -29.902599758704 gnorm: 0.000144783939 xtb: 6.4.1 (afa7bdf)
C        -3.63083330094734   -0.05544363482626    0.01572901372855
C        -2.25005477627498    0.39084737711518    0.35811446175327
C        -1.05922175842614   -0.08937318385641   -0.06846412556105
C         0.06378412564508    0.61044633063116    0.48422328800772
C         1.41152969847586    0.23749856216619    0.15044808729488
N         2.49129346743717    0.89880068773229    0.56100657746150
N         3.55020279941274    0.24386597755316    0.04950570999027
C         3.17890384263240   -0.83010186283403   -0.68694632631342
C         1.81431913130036   -0.87410734748422   -0.65137996314239
C        -0.21504856995353    1.66054335158244    1.36440786447033
S        -1.97348616361799    1.72349906597318    1.46147991789354
H        -4.20129365152448    0.75386279296479   -0.44844487510131
H        -3.59247175208707   -0.89560644547639   -0.68061800294646
H        -4.17486821648173   -0.37088775782015    0.91034959523978
H        -0.98364555683985   -0.91635405716641   -0.76511612112393
H         4.48103102196875    0.57646798024803    0.23810502686458
H         3.90509120694448   -1.46283684739045   -1.16589009214944
H         1.18476745233629   -1.60111998911210   -1.12651003636640
