9
 energy: -14.650974068722 gnorm: 0.000529023128 xtb: 6.4.1 (afa7bdf)
O        -0.00718659044997   -1.34851036626698   -0.35173692942520
C         1.06659210838356   -0.53841170591275   -0.34503715822193
C         0.70528339741234    0.73304397789232   -0.02540239349425
C        -0.69747322147279    0.69826881576931    0.17829940420209
C        -1.07261421407754   -0.59141876001503   -0.03428998640726
H         2.01488931543080   -0.97897192622552   -0.58014023506286
H         1.34781101533355    1.58551415546349    0.05658425005080
H        -1.33099881846831    1.51912079743361    0.44470860685276
H        -2.02630399209165   -1.07863398813846    0.00723044150587
