18
 energy: -29.925167161363 gnorm: 0.000612297044 xtb: 6.4.1 (afa7bdf)
C         3.79831492690168   -0.21278213402236    0.21726362485190
C         2.54899642367174    0.27661486240187    0.00440007801417
C         1.29043871634265   -0.30651848227101    0.23298281265096
C         0.19766546141667    0.50880231958569   -0.10539452663951
C        -1.17840115246963    0.10246487931918    0.05005580501017
N        -2.21104934089065    0.91402165336215   -0.15441844552336
N        -3.31199998768029    0.18425075773114    0.08254327312764
C        -3.01311494171299   -1.08790195037100    0.43777852790801
C        -1.64979679796725   -1.18451546548579    0.42972680448672
C         0.55089359008792    1.74205884668392   -0.60304308779407
S         2.29279088123798    1.91031849478672   -0.67533093679329
H         4.68256762869677    0.35710110160306   -0.01091137116407
H         3.93463336765735   -1.20081242436688    0.62772200698838
H         1.20474027169989   -1.29454312821033    0.65608265386627
H        -4.22066278620242    0.60679890292984   -0.01072322422116
H        -3.78240927129650   -1.80377797976807    0.66112770809544
H        -1.05677032092207   -2.04695886539252    0.65547059837499
H        -0.07683566857087    2.53537761148430   -0.95242630123917
