18
 energy: -29.908069270879 gnorm: 0.000656223563 xtb: 6.4.1 (afa7bdf)
C        -3.64923187884470   -0.25635085556977   -0.76929022995800
C        -2.32086272061728   -0.33369122898080   -0.09659852725868
C        -1.09857966311654    0.02136318333653   -0.55283501120607
C        -0.05764224511438   -0.20249511990394    0.40494599432664
C         1.31579136747897    0.10296979422777    0.12621214921733
N         1.74848958166694    0.62344414780000   -1.02183976343339
N         3.08493568373692    0.75801174188670   -0.88545371411132
C         3.51628895231139    0.33324289722795    0.32890172567395
C         2.41559331050495   -0.09525075587224    1.01097671746591
C        -0.42733644439674   -0.73769067824380    1.64234672630744
S        -2.17472234896583   -0.94872659096190    1.54041661566718
H        -4.15211370186918   -1.22617128871483   -0.75441469627939
H        -3.52488115013981    0.05645920080808   -1.80708533423529
H        -4.30390956493287    0.46221516823727   -0.26751494796975
H        -0.91430850984839    0.43001842407955   -1.53694428079497
H         3.63008344509144    1.13788832685074   -1.64106640181669
H         4.55788283446260    0.37473936012194    0.59372380902063
H         2.35452105259258   -0.49997472632935    1.99987616938444
