18
 energy: -29.878964557320 gnorm: 0.000852184365 xtb: 6.4.1 (afa7bdf)
C        -3.56341899053064   -0.01095236862216   -0.07292090274968
C        -2.15166282551528   -0.41371851341922   -0.33714737527870
C        -1.01042210129757    0.23327270780008   -0.01654883079295
C         0.18781979913530   -0.44439471295833   -0.41288375019032
C         1.51302131093819    0.05489744880783   -0.17401015034068
N         1.65341535071162    1.24081009749200    0.46229337810943
N         2.97844739648175    1.40492699734584    0.52242344010803
C         3.64150922106994    0.34206206660180   -0.06430678814880
C         2.74949302310480   -0.59816537370732   -0.55020318238350
C        -0.10041571602860   -1.62078276454512   -1.04136308417631
S        -1.80700383661645   -1.91753174093695   -1.15792799479856
H        -4.04030520419908   -0.69968496198861    0.62840955910259
H        -3.58583546387818    0.99123358657091    0.35325664456643
H        -4.14855493053254   -0.01607416414305   -0.99424805782664
H        -0.97939141053182    1.18084574527208    0.49360364748064
H         3.35279292576061    2.23720025133738    0.96368987012422
H         4.72711040027977    0.37392059547245   -0.07009871050154
H         0.58340205164826   -2.33786289637954   -1.44620871230374
