18
 energy: -29.923487996444 gnorm: 0.000642957120 xtb: 6.4.1 (afa7bdf)
C        -3.69935348582755   -0.55469612203020    0.69935053683175
C        -2.39466347821192   -0.16777854770157    0.19408192352150
C        -1.31164447677412    0.15068754238365   -0.22322618557744
C        -0.06003619350656    0.54476194683016   -0.74308732388514
C         1.11357613621089    0.10182689276348   -0.04413011783797
N         1.04836805748204   -0.63471427423698    1.06840031768795
N         2.32334909753102   -0.86011548316784    1.44017141903638
C         3.20952600655031   -0.28660521016608    0.59198213407395
C         2.48081856560577    0.34225552401823   -0.37616359295637
C         0.01824982214232    1.32273627715150   -1.87435388378484
S        -1.25514362302293    1.91646956662365   -2.79673618740116
H        -3.96387852266093   -1.55890485138051    0.35624533502394
H        -4.46016980829650    0.14356441073564    0.34408717688539
H        -3.70315538646085   -0.54994115774857    1.79267454853729
H         2.51260430860929   -1.40501727642064    2.26418631905460
H         4.26955724650603   -0.37286715654045    0.74654169787348
H         2.86254467847930    0.89725208385011   -1.20934318711958
H         1.00945205564451    1.59979983503656   -2.23068092996398
