19
 energy: -30.276393741340 gnorm: 0.000922589860 xtb: 6.4.1 (afa7bdf)
C        -1.87390607890977    0.63466800534607   -1.07064823392162
C        -1.39720084357785    0.05365322915264    0.12776195742614
C        -0.02569997908092   -0.21223635912553    0.50226590218372
C         1.10148826728830    0.04016615531155   -0.33197407488530
C         2.28478009233250   -0.29034226246693    0.24050090037340
S         2.04348773652349   -0.92752166941952    1.84109968026805
C         0.34438121800997   -0.73708512354987    1.70597757227772
C         3.65619897797975   -0.16315090291475   -0.32129184683312
N        -2.41501104683598   -0.24018955506580    0.92974007187944
N        -3.51136900242977    0.13425411247984    0.27991883832265
C        -3.23730446091801    0.66711428753062   -0.92926906306783
H        -1.29886509336410    0.97732961730074   -1.90533504759987
H         1.02545579937626    0.45100415543862   -1.32273571662509
H        -0.29672183644012   -1.01876243044904    2.51594557766612
H         4.24101620787295    0.55574149991308    0.25320717227277
H         4.17686185777245   -1.11991755652163   -0.28666025297494
H         3.60519890829325    0.17330988265412   -1.35438129225281
H        -4.41354843165430    0.00106142833769    0.70870411387199
H        -4.00924029223806    1.02090348604806   -1.58282625838139
