8
 energy: -14.335764281200 gnorm: 0.000720489259 xtb: 6.4.1 (afa7bdf)
C         0.67242019583867   -1.44704976127984   -0.02650607250837
C         1.11363169717245   -0.12729980782381    0.07882734932138
C         0.01028560139648    0.75222494707183    0.21413029586384
C        -1.09254259957150   -0.04318688644817    0.18952211193917
O        -0.72675073511778   -1.34133197284306    0.04790699957134
H         2.15522022752934    0.19722916260293    0.06132333731173
H         0.01837607720165    1.83241580541358    0.31767468506835
H        -2.15064146444932    0.17699751330654    0.25901529343255
