18
 energy: -29.925170819114 gnorm: 0.000571131515 xtb: 6.4.1 (afa7bdf)
C        -3.74650652052024   -0.49725945996198   -0.45336892633340
C        -2.49725011061212   -0.58203381700678    0.07369103614099
C        -1.28128710847897   -0.03447337930802   -0.37113569595442
C        -0.17225654087851   -0.33995753243704    0.43517986446854
C         1.16643519031304    0.12245919023292    0.15788798313517
N         2.23342527297175   -0.25848007474325    0.85303835668525
N         3.28136414407743    0.37730196456601    0.30673550407647
C         2.91427625132798    1.16502235371403   -0.73182236898523
C         1.56041976409962    1.03112945144378   -0.86280241291565
C        -0.47037476842084   -1.12618855449952    1.52437995578159
S        -2.18097566248419   -1.49880922161154    1.57570970897324
H        -3.91926097926601    0.06049936536999   -1.36020349553843
H        -4.59482521443110   -0.97529001904047    0.00549608790423
H        -1.23395203694177    0.55175913058316   -1.27480504102231
H         4.20433870299148    0.23084074933415    0.68036326182278
H         3.63483262347570    1.74428577971298   -1.27904103657747
H         0.92483130693038    1.51130921745359   -1.57826269755413
H         0.17676568584654   -1.48211414380221    2.29895891589265
