18
 energy: -29.899854746248 gnorm: 0.000440821138 xtb: 6.4.1 (afa7bdf)
C        -3.45203928943614   -0.20669272170640    0.15478426468241
C        -2.05468068683831    0.31285278147673    0.16377213832420
C        -0.89636248578676   -0.37083297471501    0.02859742826893
C         0.27955310598674    0.44230031633696    0.08546494034714
C         1.62296556551590   -0.05647601887325   -0.03254778445834
N         2.68077675478736    0.77286459542998   -0.00570396829691
N         3.72889699048982   -0.07915939407596   -0.14150275147456
C         3.46288565360486   -1.41590129784474   -0.25557663095293
C         2.05349230926993   -1.39116465888539   -0.18182390271189
C        -0.04371785014605    1.75452884266248    0.26782863703533
S        -1.75634913743460    2.01964627322356    0.37234781185485
H        -4.04108351720487    0.27747914682758   -0.62524321552968
H        -3.44646010359620   -1.28005540658622   -0.02577138159840
H        -3.94403176544881   -0.01541084708338    1.10978150594318
H        -0.86217558210360   -1.43817180130603   -0.11185110213493
H         4.65152149975810    0.33569434954549   -0.15044708192813
H         1.39691445440759   -2.25232182227982   -0.22896969068532
H         0.61989508417503    2.59081963785344    0.34831278331496
