18
 energy: -29.925164127778 gnorm: 0.000641064416 xtb: 6.4.1 (afa7bdf)
C        -3.53683399381474    0.42579213743932    0.73304042327209
C        -2.25459188973555    0.01043333528773    0.19205432013734
C        -1.19495404448403   -0.33801616354987   -0.26314530301877
C         0.04409221633157   -0.74724668952843   -0.79863651180552
C         1.22050445236596   -0.13932270203599   -0.24504888480138
N         2.46814839032794   -0.40516752572280   -0.63916464865754
N         3.26675203735039    0.36733666173842    0.12437075492014
C         2.56207370391210    1.12397065884269    0.99923281055767
C         1.24356051358322    0.83255663513681    0.79950157121552
C         0.12231648448365   -1.68323853842537   -1.80408794797143
S        -1.14863960910847   -2.48283155742344   -2.55347427658409
H        -3.44177529058716    1.38501781323560    1.25028423164337
H        -4.26770344853519    0.53546864757602   -0.07146204659805
H        -3.91493027469399   -0.31518111457190    1.44329772517518
H         4.26366899842279    0.33108920896080   -0.00497704442372
H         3.05366439959375    1.79480167983250    1.68008637739675
H         0.39130762892717    1.23636885952239    1.30823160867134
H         1.12333872566063   -1.93182934631441   -2.15010515912901
