19
 energy: -30.276780640305 gnorm: 0.000690414389 xtb: 6.4.1 (afa7bdf)
C        -2.52845770503643   -0.60762972192846    0.43964520823686
C        -1.34576817325250   -0.03581664401578   -0.08585649165493
C         0.02235575356029   -0.28241288774814    0.31147997239013
C         1.13890514391441    0.36793034285184   -0.28907536964748
C         2.33107670799819   -0.00902433038823    0.23078219176978
S         2.11332811892372   -1.19059667590493    1.49043607369757
C         0.40810837316690   -1.15147435734547    1.28963636810744
C         3.69659238694299    0.44677811319298   -0.14161806597875
N        -1.64381539010915    0.81704754232968   -1.05932593625932
N        -2.96727138437167    0.80271999048507   -1.16522497720727
C        -3.54541381284438   -0.04045943497344   -0.28303393651856
H        -2.61015656072616   -1.32514141706976    1.22888440280611
H         1.02246834925878    1.08709632950276   -1.07867718707971
H        -0.20279671124973   -1.77639539650614    1.90947205426948
H         3.63345278598878    1.22154062836045   -0.90167663892037
H         4.28510007040880   -0.38251920614011   -0.53395466023017
H         4.22014817543121    0.84514235365100    0.72676532112103
H        -3.42007913596773    1.38397717168659   -1.85251036170525
H        -4.60777999203630   -0.17076240003991   -0.23614696719657
